Pcp_File_Version=4
*** BLOCK I: ATMOSPHERIC INFORMATION  **********************************
   MaxAL                    (MaxAL = number of atmospheric data-records)
   1279
 DailyVar  SinusVar  lLay  lBCCycles lInterc lDummy  lDummy  lDummy  lDummy  lDummy
       f       f       f       f       f       f       f       f       f       f
 hCritS                 (max. allowed pressure head at the soil surface)
      0
       tAtm        Prec       rSoil       rRoot      hCritA          rB          hB          ht        tTop        tBot        Ampl        cTop        cBot   RootDepth
          1    0.064529    0.310435           0      100000           0           0           0           0           0           0    0.999927           0 
          2    0.614529    0.155217           0      100000           0           0           0           0           0           0    0.104997           0 
          3    0.064529    0.240435           0      100000           0           0           0           0           0           0    0.999927           0 
          4    0.244529        0.12           0      100000           0           0           0           0           0           0    0.263871           0 
          5    0.074529        0.08           0      100000           0           0           0           0           0           0    0.865761           0 
          6    0.064529        0.19           0      100000           0           0           0           0           0           0    0.999927           0 
          7    0.064529    0.283696           0      100000           0           0           0           0           0           0    0.999927           0 
          8    0.104529    0.148478           0      100000           0           0           0           0           0           0    0.617285           0 
          9    0.064529        0.24           0      100000           0           0           0           0           0           0    0.999927           0 
         10    0.064529        0.24           0      100000           0           0           0           0           0           0    0.999927           0 
         11    0.064529        0.42           0      100000           0           0           0           0           0           0    0.999927           0 
         12    0.234529        0.28           0      100000           0           0           0           0           0           0    0.275122           0 
         13     2.89453        0.28           0      100000           0           0           0           0           0           0    0.022292           0 
         14     1.09453        0.31           0      100000           0           0           0           0           0           0    0.058951           0 
         15    0.064529        0.36           0      100000           0           0           0           0           0           0    0.999927           0 
         16    0.064529        0.24           0      100000           0           0           0           0           0           0    0.999927           0 
         17    0.064529    0.500652           0      100000           0           0           0           0           0           0    0.999927           0 
         18    0.904529    0.458261           0      100000           0           0           0           0           0           0    0.071334           0 
         19     2.46453    0.266957           0      100000           0           0           0           0           0           0    0.026181           0 
         20    0.424529    0.340652           0      100000           0           0           0           0           0           0     0.15199           0 
         21    0.064529        0.37           0      100000           0           0           0           0           0           0    0.999927           0 
         22    0.064529         0.4           0      100000           0           0           0           0           0           0    0.999927           0 
         23    0.064529        0.45           0      100000           0           0           0           0           0           0    0.999927           0 
         24    0.064529        0.32           0      100000           0           0           0           0           0           0    0.999927           0 
         25    0.064529        0.33           0      100000           0           0           0           0           0           0    0.999927           0 
         26    0.064529        0.41           0      100000           0           0           0           0           0           0    0.999927           0 
         27    0.064529        0.58           0      100000           0           0           0           0           0           0    0.999927           0 
         28    0.064529    0.515217           0      100000           0           0           0           0           0           0    0.999927           0 
         29    0.404529    0.455652           0      100000           0           0           0           0           0           0    0.159504           0 
         30     1.12453        0.35           0      100000           0           0           0           0           0           0    0.057379           0 
         31    0.064529    0.433478           0      100000           0           0           0           0           0           0    0.999927           0 
         32    0.091222    0.451304           0      100000           0           0           0           0           0           0    0.998516           0 
         33    0.091222        0.47           0      100000           0           0           0           0           0           0    0.998516           0 
         34    0.521222        0.28           0      100000           0           0           0           0           0           0    0.174756           0 
         35     1.00122        0.35           0      100000           0           0           0           0           0           0    0.090975           0 
         36    0.091222    0.377826           0      100000           0           0           0           0           0           0    0.998516           0 
         37    0.581222        0.38           0      100000           0           0           0           0           0           0    0.156716           0 
         38    0.161222        0.31           0      100000           0           0           0           0           0           0    0.564976           0 
         39    0.111222         0.3           0      100000           0           0           0           0           0           0    0.818962           0 
         40    0.591222    0.378043           0      100000           0           0           0           0           0           0    0.154065           0 
         41    0.091222        0.38           0      100000           0           0           0           0           0           0    0.998516           0 
         42    0.131222         0.5           0      100000           0           0           0           0           0           0    0.694141           0 
         43    0.091222    0.419783           0      100000           0           0           0           0           0           0    0.998516           0 
         44    0.091222         0.3           0      100000           0           0           0           0           0           0    0.998516           0 
         45    0.091222    0.420217           0      100000           0           0           0           0           0           0    0.998516           0 
         46     1.00122    0.490217           0      100000           0           0           0           0           0           0    0.090975           0 
         47    0.111222        0.34           0      100000           0           0           0           0           0           0    0.818962           0 
         48    0.091222    0.342391           0      100000           0           0           0           0           0           0    0.998516           0 
         49    0.091222         0.4           0      100000           0           0           0           0           0           0    0.998516           0 
         50    0.091222        0.52           0      100000           0           0           0           0           0           0    0.998516           0 
         51    0.091222    0.543261           0      100000           0           0           0           0           0           0    0.998516           0 
         52    0.091222        0.49           0      100000           0           0           0           0           0           0    0.998516           0 
         53     3.56122    0.499565           0      100000           0           0           0           0           0           0    0.025577           0 
         54    0.151222    0.400435           0      100000           0           0           0           0           0           0    0.602337           0 
         55    0.091222    0.346522           0      100000           0           0           0           0           0           0    0.998516           0 
         56    0.761222     0.27413           0      100000           0           0           0           0           0           0    0.119658           0 
         57    0.361222        0.36           0      100000           0           0           0           0           0           0    0.252163           0 
         58    0.091222        0.35           0      100000           0           0           0           0           0           0    0.998516           0 
         59    0.961222    0.331304           0      100000           0           0           0           0           0           0    0.094761           0 
         60    0.271222        0.22           0      100000           0           0           0           0           0           0    0.335838           0 
         61     2.60122    0.260435           0      100000           0           0           0           0           0           0    0.035017           0 
         62    0.556392        0.19           0      100000           0           0           0           0           0           0    0.155259           0 
         63    0.266392        0.25           0      100000           0           0           0           0           0           0    0.324276           0 
         64    0.286392        0.46           0      100000           0           0           0           0           0           0    0.301631           0 
         65    0.086392         0.4           0      100000           0           0           0           0           0           0    0.999913           0 
         66    0.116392        0.34           0      100000           0           0           0           0           0           0    0.742186           0 
         67    0.086392        0.44           0      100000           0           0           0           0           0           0    0.999913           0 
         68    0.346392    0.479348           0      100000           0           0           0           0           0           0    0.249384           0 
         69    0.086392    0.382609           0      100000           0           0           0           0           0           0    0.999913           0 
         70    0.116392        0.39           0      100000           0           0           0           0           0           0    0.742186           0 
         71    0.646392        0.21           0      100000           0           0           0           0           0           0    0.133641           0 
         72    0.096392    0.346522           0      100000           0           0           0           0           0           0    0.896179           0 
         73     1.06639        0.19           0      100000           0           0           0           0           0           0    0.081007           0 
         74    0.086392        0.32           0      100000           0           0           0           0           0           0    0.999913           0 
         75    0.206392        0.34           0      100000           0           0           0           0           0           0    0.418546           0 
         76    0.126392        0.28           0      100000           0           0           0           0           0           0    0.683465           0 
         77    0.126392        0.24           0      100000           0           0           0           0           0           0    0.683465           0 
         78    0.176392    0.338478           0      100000           0           0           0           0           0           0    0.489731           0 
         79    0.086392    0.439348           0      100000           0           0           0           0           0           0    0.999913           0 
         80     1.96639     0.54087           0      100000           0           0           0           0           0           0    0.043931           0 
         81    0.156392        0.29           0      100000           0           0           0           0           0           0    0.552359           0 
         82    0.086392        0.41           0      100000           0           0           0           0           0           0    0.999913           0 
         83     1.34639    0.278696           0      100000           0           0           0           0           0           0     0.06416           0 
         84    0.586392        0.38           0      100000           0           0           0           0           0           0    0.147316           0 
         85     1.09639         0.2           0      100000           0           0           0           0           0           0     0.07879           0 
         86     3.37639        0.16           0      100000           0           0           0           0           0           0    0.025585           0 
         87     2.81639    0.255435           0      100000           0           0           0           0           0           0    0.030672           0 
         88    0.086392        0.25           0      100000           0           0           0           0           0           0    0.999913           0 
         89    0.106392    0.340435           0      100000           0           0           0           0           0           0    0.811946           0 
         90    0.086392        0.34           0      100000           0           0           0           0           0           0    0.999913           0 
         91    0.126392    0.512174           0      100000           0           0           0           0           0           0    0.683465           0 
         92    0.086392        0.45           0      100000           0           0           0           0           0           0    0.999913           0 
         93     0.25128    0.313913           0      100000           0           0           0           0           0           0    0.323465           0 
         94     0.08128     0.33087           0      100000           0           0           0           0           0           0           1           0 
         95     0.18128        0.37           0      100000           0           0           0           0           0           0    0.448368           0 
         96     0.08128        0.39           0      100000           0           0           0           0           0           0           1           0 
         97     0.97128        0.23           0      100000           0           0           0           0           0           0    0.083684           0 
         98     0.08128        0.34           0      100000           0           0           0           0           0           0           1           0 
         99     0.08128         0.4           0      100000           0           0           0           0           0           0           1           0 
        100     0.13128    0.339348           0      100000           0           0           0           0           0           0    0.619136           0 
        101     0.08128    0.369783           0      100000           0           0           0           0           0           0           1           0 
        102     0.39128        0.21           0      100000           0           0           0           0           0           0    0.207729           0 
        103     3.45128        0.13           0      100000           0           0           0           0           0           0    0.023551           0 
        104     0.59128        0.17           0      100000           0           0           0           0           0           0    0.137465           0 
        105     0.10128    0.238478           0      100000           0           0           0           0           0           0    0.802528           0 
        106     0.08128        0.35           0      100000           0           0           0           0           0           0           1           0 
        107     0.08128        0.39           0      100000           0           0           0           0           0           0           1           0 
        108     0.11128        0.28           0      100000           0           0           0           0           0           0    0.730411           0 
        109     0.24128        0.26           0      100000           0           0           0           0           0           0    0.336871           0 
        110     1.26128       0.185           0      100000           0           0           0           0           0           0    0.064443           0 
        111     0.09128        0.25           0      100000           0           0           0           0           0           0    0.890447           0 
        112     0.32128        0.22           0      100000           0           0           0           0           0           0    0.252989           0 
        113     0.08128        0.22           0      100000           0           0           0           0           0           0           1           0 
        114     0.08128        0.23           0      100000           0           0           0           0           0           0           1           0 
        115     0.08128         0.3           0      100000           0           0           0           0           0           0           1           0 
        116     0.64128        0.24           0      100000           0           0           0           0           0           0    0.126747           0 
        117     0.08128        0.27           0      100000           0           0           0           0           0           0           1           0 
        118     1.35128        0.22           0      100000           0           0           0           0           0           0    0.060151           0 
        119     0.08128        0.26           0      100000           0           0           0           0           0           0           1           0 
        120     0.08128        0.27           0      100000           0           0           0           0           0           0           1           0 
        121     0.08128        0.33           0      100000           0           0           0           0           0           0           1           0 
        122     0.08128    0.330652           0      100000           0           0           0           0           0           0           1           0 
        123     0.25128        0.17           0      100000           0           0           0           0           0           0    0.323465           0 
        124    0.075998        0.17           0      100000           0           0           0           0           0           0           1           0 
        125    0.115998        0.19           0      100000           0           0           0           0           0           0    0.655168           0 
        126    0.075998        0.19           0      100000           0           0           0           0           0           0           1           0 
        127    0.075998        0.24           0      100000           0           0           0           0           0           0           1           0 
        128    0.095998        0.22           0      100000           0           0           0           0           0           0    0.791663           0 
        129    0.575998         0.2           0      100000           0           0           0           0           0           0    0.131942           0 
        130    0.205998        0.17           0      100000           0           0           0           0           0           0    0.368927           0 
        131    0.205998    0.153043           0      100000           0           0           0           0           0           0    0.368927           0 
        132    0.105998        0.17           0      100000           0           0           0           0           0           0    0.716977           0 
        133    0.075998    0.195652           0      100000           0           0           0           0           0           0           1           0 
        134    0.085998        0.18           0      100000           0           0           0           0           0           0    0.883719           0 
        135    0.115998        0.18           0      100000           0           0           0           0           0           0    0.655168           0 
        136    0.345998        0.25           0      100000           0           0           0           0           0           0     0.21965           0 
        137    0.385998        0.17           0      100000           0           0           0           0           0           0    0.196888           0 
        138    0.245998        0.15           0      100000           0           0           0           0           0           0    0.308939           0 
        139    0.075998        0.13           0      100000           0           0           0           0           0           0           1           0 
        140    0.135998        0.12           0      100000           0           0           0           0           0           0    0.558818           0 
        141    0.445998    0.120217           0      100000           0           0           0           0           0           0    0.170401           0 
        142    0.075998        0.12           0      100000           0           0           0           0           0           0           1           0 
        143    0.085998         0.1           0      100000           0           0           0           0           0           0    0.883719           0 
        144    0.075998        0.13           0      100000           0           0           0           0           0           0           1           0 
        145    0.075998        0.12           0      100000           0           0           0           0           0           0           1           0 
        146    0.075998        0.12           0      100000           0           0           0           0           0           0           1           0 
        147    0.245998        0.07           0      100000           0           0           0           0           0           0    0.308939           0 
        148    0.335998        0.08           0      100000           0           0           0           0           0           0    0.226187           0 
        149       2.086    0.096522           0      100000           0           0           0           0           0           0    0.036433           0 
        150    0.075998        0.08           0      100000           0           0           0           0           0           0           1           0 
        151    0.095998    0.065217           0      100000           0           0           0           0           0           0    0.791663           0 
        152    0.075998        0.13           0      100000           0           0           0           0           0           0           1           0 
        153    0.795998        0.12           0      100000           0           0           0           0           0           0    0.095476           0 
        154    0.130634        0.13           0      100000           0           0           0           0           0           0    0.540702           0 
        155    0.450634        0.12           0      100000           0           0           0           0           0           0    0.156744           0 
        156    0.170634        0.14           0      100000           0           0           0           0           0           0    0.413951           0 
        157    0.070634         0.1           0      100000           0           0           0           0           0           0           1           0 
        158     1.11063        0.16           0      100000           0           0           0           0           0           0    0.063598           0 
        159    0.210634        0.12           0      100000           0           0           0           0           0           0    0.335341           0 
        160    0.860634        0.09           0      100000           0           0           0           0           0           0    0.082072           0 
        161    0.190634        0.13           0      100000           0           0           0           0           0           0    0.370522           0 
        162    0.090634        0.07           0      100000           0           0           0           0           0           0    0.779333           0 
        163    0.300634        0.09           0      100000           0           0           0           0           0           0    0.234951           0 
        164    0.080634         0.1           0      100000           0           0           0           0           0           0    0.875983           0 
        165    0.120634        0.14           0      100000           0           0           0           0           0           0    0.585524           0 
        166    0.070634        0.09           0      100000           0           0           0           0           0           0           1           0 
        167    0.070634         0.1           0      100000           0           0           0           0           0           0           1           0 
        168    0.070634        0.11           0      100000           0           0           0           0           0           0           1           0 
        169    0.070634        0.11           0      100000           0           0           0           0           0           0           1           0 
        170    0.070634    0.088261           0      100000           0           0           0           0           0           0           1           0 
        171    0.070634        0.06           0      100000           0           0           0           0           0           0           1           0 
        172    0.070634        0.08           0      100000           0           0           0           0           0           0           1           0 
        173    0.440634        0.08           0      100000           0           0           0           0           0           0    0.160301           0 
        174    0.370634        0.07           0      100000           0           0           0           0           0           0    0.190577           0 
        175    0.110634        0.07           0      100000           0           0           0           0           0           0    0.638448           0 
        176    0.380634        0.06           0      100000           0           0           0           0           0           0     0.18557           0 
        177    0.110634        0.05           0      100000           0           0           0           0           0           0    0.638448           0 
        178    0.100634        0.09           0      100000           0           0           0           0           0           0    0.701891           0 
        179    0.090634        0.06           0      100000           0           0           0           0           0           0    0.779333           0 
        180    0.220634        0.09           0      100000           0           0           0           0           0           0    0.320142           0 
        181    0.150634        0.08           0      100000           0           0           0           0           0           0    0.468912           0 
        182    0.370634         0.2           0      100000           0           0           0           0           0           0    0.190577           0 
        183    0.070634        0.08           0      100000           0           0           0           0           0           0           1           0 
        184    0.100634        0.05           0      100000           0           0           0           0           0           0    0.701891           0 
        185    0.295834        0.07           0      100000           0           0           0           0           0           0    0.019721           0 
        186    0.075834        0.07           0      100000           0           0           0           0           0           0    0.076934           0 
        187    0.005834        0.04           0      100000           0           0           0           0           0           0           1           0 