Pcp_File_Version=4
*** BLOCK I: ATMOSPHERIC INFORMATION  **********************************
   MaxAL                    (MaxAL = number of atmospheric data-records)
   2436
 DailyVar  SinusVar  lLay  lBCCycles lInterc lDummy  lDummy  lDummy  lDummy  lDummy
      f      f      f      f      f       f       f       f       f       f
 hCritS                 (max. allowed pressure head at the soil surface)
      0
       tAtm        Prec       rSoil       rRoot      hCritA          rB          hB          ht        tTop        tBot        Ampl        cTop        cBot   RootDepth
          1        0.11        0.24           0      100000           0           0           0           0           0           0       99.28           0
          2        0.66        0.19           0      100000           0           0           0           0           0           0       16.07           0
          3        0.11        0.21           0      100000           0           0           0           0           0           0       99.28           0
          4        0.29        0.15           0      100000           0           0           0           0           0           0       36.84           0
          5        0.12        0.13           0      100000           0           0           0           0           0           0       90.73           0
          6        0.11        0.25           0      100000           0           0           0           0           0           0       99.28           0
          7        0.11        0.21           0      100000           0           0           0           0           0           0       99.28           0
          8        0.15        0.14           0      100000           0           0           0           0           0           0       72.11           0
          9        0.11        0.22           0      100000           0           0           0           0           0           0       99.28           0
         10        0.11        0.29           0      100000           0           0           0           0           0           0       99.28           0
         11        0.11        0.38           0      100000           0           0           0           0           0           0       99.28           0
         12        0.28        0.29           0      100000           0           0           0           0           0           0       38.17           0
         13        2.94        0.29           0      100000           0           0           0           0           0           0        3.59           0
         14        1.14        0.29           0      100000           0           0           0           0           0           0        9.28           0
         15        0.11        0.34           0      100000           0           0           0           0           0           0       99.28           0
         16        0.11        0.34           0      100000           0           0           0           0           0           0       99.28           0
         17        0.11        0.51           0      100000           0           0           0           0           0           0       99.28           0
         18        0.95        0.41           0      100000           0           0           0           0           0           0       11.14           0
         19        2.51        0.29           0      100000           0           0           0           0           0           0        4.21           0
         20        0.47        0.28           0      100000           0           0           0           0           0           0       22.61           0
         21        0.11        0.37           0      100000           0           0           0           0           0           0       99.28           0
         22        0.11         0.4           0      100000           0           0           0           0           0           0       99.28           0
         23        0.11        0.46           0      100000           0           0           0           0           0           0       99.28           0
         24        0.11         0.3           0      100000           0           0           0           0           0           0       99.28           0
         25        0.11        0.35           0      100000           0           0           0           0           0           0       99.28           0
         26        0.11        0.44           0      100000           0           0           0           0           0           0       99.28           0
         27        0.11        0.57           0      100000           0           0           0           0           0           0       99.28           0
         28        0.11        0.54           0      100000           0           0           0           0           0           0       99.28           0
         29        0.45        0.52           0      100000           0           0           0           0           0           0       23.63           0
         30        1.17        0.39           0      100000           0           0           0           0           0           0        9.04           0
         31        0.11        0.42           0      100000           0           0           0           0           0           0       99.28           0
         32        0.17        0.43           0      100000           0           0           0           0           0           0       87.06           0
         33        0.17        0.44           0      100000           0           0           0           0           0           0       87.06           0
         34         0.6        0.36           0      100000           0           0           0           0           0           0       24.76           0
         35        1.08        0.28           0      100000           0           0           0           0           0           0       13.77           0
         36        0.17        0.33           0      100000           0           0           0           0           0           0       87.06           0
         37        0.66        0.32           0      100000           0           0           0           0           0           0       22.52           0
         38        0.24        0.32           0      100000           0           0           0           0           0           0       61.76           0
         39        0.19        0.38           0      100000           0           0           0           0           0           0       77.94           0
         40        0.67         0.4           0      100000           0           0           0           0           0           0       22.18           0
         41        0.17        0.41           0      100000           0           0           0           0           0           0       87.06           0
         42        0.21        0.54           0      100000           0           0           0           0           0           0       70.55           0
         43        0.17        0.44           0      100000           0           0           0           0           0           0       87.06           0
         44        0.17        0.37           0      100000           0           0           0           0           0           0       87.06           0
         45        0.17        0.45           0      100000           0           0           0           0           0           0       87.06           0
         46        1.08        0.51           0      100000           0           0           0           0           0           0       13.77           0
         47        0.19         0.4           0      100000           0           0           0           0           0           0       77.94           0
         48        0.17        0.34           0      100000           0           0           0           0           0           0       87.06           0
         49        0.17        0.46           0      100000           0           0           0           0           0           0       87.06           0
         50        0.17        0.55           0      100000           0           0           0           0           0           0       87.06           0
         51        0.17        0.58           0      100000           0           0           0           0           0           0       87.06           0
         52        0.17        0.52           0      100000           0           0           0           0           0           0       87.06           0
         53        3.64        0.56           0      100000           0           0           0           0           0           0        4.09           0
         54        0.23        0.47           0      100000           0           0           0           0           0           0       64.44           0
         55        0.17        0.42           0      100000           0           0           0           0           0           0       87.06           0
         56        0.84        0.34           0      100000           0           0           0           0           0           0        17.7           0
         57        0.44        0.45           0      100000           0           0           0           0           0           0       33.75           0
         58        0.17        0.34           0      100000           0           0           0           0           0           0       87.06           0
         59        1.04        0.34           0      100000           0           0           0           0           0           0        14.3           0
         60        0.35        0.25           0      100000           0           0           0           0           0           0        42.4           0
         61        2.68        0.32           0      100000           0           0           0           0           0           0        5.55           0
         62        0.61        0.24           0      100000           0           0           0           0           0           0       23.05           0
         63        0.32        0.24           0      100000           0           0           0           0           0           0       43.78           0
         64        0.34        0.42           0      100000           0           0           0           0           0           0       41.22           0
         65        0.14        0.41           0      100000           0           0           0           0           0           0       99.14           0
         66        0.17        0.44           0      100000           0           0           0           0           0           0       81.88           0
         67        0.14        0.48           0      100000           0           0           0           0           0           0       99.14           0
         68         0.4        0.46           0      100000           0           0           0           0           0           0       35.08           0
         69        0.14        0.44           0      100000           0           0           0           0           0           0       99.14           0
         70        0.17         0.4           0      100000           0           0           0           0           0           0       81.88           0
         71         0.7        0.28           0      100000           0           0           0           0           0           0       20.09           0
         72        0.15        0.34           0      100000           0           0           0           0           0           0       92.63           0
         73        1.12        0.25           0      100000           0           0           0           0           0           0       12.57           0
         74        0.14        0.35           0      100000           0           0           0           0           0           0       99.14           0
         75        0.26        0.32           0      100000           0           0           0           0           0           0       53.79           0
         76        0.18         0.3           0      100000           0           0           0           0           0           0       77.39           0
         77        0.18        0.29           0      100000           0           0           0           0           0           0       77.39           0
         78        0.23        0.37           0      100000           0           0           0           0           0           0       60.74           0
         79        0.14        0.45           0      100000           0           0           0           0           0           0       99.14           0
         80        2.02        0.54           0      100000           0           0           0           0           0           0        6.98           0
         81        0.21        0.34           0      100000           0           0           0           0           0           0       66.46           0
         82        0.14        0.42           0      100000           0           0           0           0           0           0       99.14           0
         83         1.4        0.35           0      100000           0           0           0           0           0           0       10.06           0
         84        0.64        0.32           0      100000           0           0           0           0           0           0       21.97           0
         85        1.15        0.23           0      100000           0           0           0           0           0           0       12.25           0
         86        3.43        0.18           0      100000           0           0           0           0           0           0        4.11           0
         87        2.87        0.23           0      100000           0           0           0           0           0           0        4.91           0
         88        0.14        0.23           0      100000           0           0           0           0           0           0       99.14           0
         89        0.16        0.32           0      100000           0           0           0           0           0           0       86.92           0
         90        0.14        0.36           0      100000           0           0           0           0           0           0       99.14           0
         91        0.18        0.47           0      100000           0           0           0           0           0           0       77.39           0
         92        0.14        0.41           0      100000           0           0           0           0           0           0       99.14           0
         93         0.3        0.37           0      100000           0           0           0           0           0           0       43.86           0
         94        0.13        0.36           0      100000           0           0           0           0           0           0         100           0
         95        0.23        0.34           0      100000           0           0           0           0           0           0       57.04           0
         96        0.13        0.36           0      100000           0           0           0           0           0           0         100           0
         97        1.02        0.31           0      100000           0           0           0           0           0           0       12.98           0
         98        0.13         0.3           0      100000           0           0           0           0           0           0         100           0
         99        0.13         0.4           0      100000           0           0           0           0           0           0         100           0
        100        0.18        0.32           0      100000           0           0           0           0           0           0       72.65           0
        101        0.13        0.33           0      100000           0           0           0           0           0           0         100           0
        102        0.44        0.19           0      100000           0           0           0           0           0           0       29.99           0
        103         3.5        0.13           0      100000           0           0           0           0           0           0        3.79           0
        104        0.64        0.17           0      100000           0           0           0           0           0           0       20.66           0
        105        0.15        0.25           0      100000           0           0           0           0           0           0       86.91           0
        106        0.13        0.35           0      100000           0           0           0           0           0           0         100           0
        107        0.13        0.37           0      100000           0           0           0           0           0           0         100           0
        108        0.16        0.27           0      100000           0           0           0           0           0           0       81.57           0
        109        0.29        0.29           0      100000           0           0           0           0           0           0       45.35           0
        110        1.31        0.26           0      100000           0           0           0           0           0           0       10.12           0
        111        0.14        0.24           0      100000           0           0           0           0           0           0          93           0
        112        0.37        0.24           0      100000           0           0           0           0           0           0       35.62           0
        113        0.13        0.23           0      100000           0           0           0           0           0           0         100           0
        114        0.13        0.25           0      100000           0           0           0           0           0           0         100           0
        115        0.13        0.31           0      100000           0           0           0           0           0           0         100           0
        116        0.69        0.27           0      100000           0           0           0           0           0           0       19.17           0
        117        0.13        0.29           0      100000           0           0           0           0           0           0         100           0
        118         1.4        0.28           0      100000           0           0           0           0           0           0        9.47           0
        119        0.13        0.26           0      100000           0           0           0           0           0           0         100           0
        120        0.13        0.28           0      100000           0           0           0           0           0           0         100           0
        121        0.13        0.33           0      100000           0           0           0           0           0           0         100           0
        122        0.13        0.33           0      100000           0           0           0           0           0           0         100           0
        123         0.3        0.18           0      100000           0           0           0           0           0           0       43.86           0
        124        0.12        0.15           0      100000           0           0           0           0           0           0         100           0
        125        0.16        0.16           0      100000           0           0           0           0           0           0       75.63           0
        126        0.12        0.18           0      100000           0           0           0           0           0           0         100           0
        127        0.12        0.22           0      100000           0           0           0           0           0           0         100           0
        128        0.14        0.21           0      100000           0           0           0           0           0           0       86.13           0
        129        0.62        0.19           0      100000           0           0           0           0           0           0       19.89           0
        130        0.25        0.17           0      100000           0           0           0           0           0           0       48.85           0
        131        0.25        0.16           0      100000           0           0           0           0           0           0       48.85           0
        132        0.15        0.15           0      100000           0           0           0           0           0           0       80.54           0
        133        0.12        0.16           0      100000           0           0           0           0           0           0         100           0
        134        0.13        0.17           0      100000           0           0           0           0           0           0       92.55           0
        135        0.16        0.17           0      100000           0           0           0           0           0           0       75.63           0
        136        0.39         0.2           0      100000           0           0           0           0           0           0        31.5           0
        137        0.43        0.17           0      100000           0           0           0           0           0           0        28.6           0
        138        0.29        0.15           0      100000           0           0           0           0           0           0       42.21           0
        139        0.12        0.11           0      100000           0           0           0           0           0           0         100           0
        140        0.18        0.12           0      100000           0           0           0           0           0           0       67.42           0
        141        0.49        0.12           0      100000           0           0           0           0           0           0       25.13           0
        142        0.12        0.11           0      100000           0           0           0           0           0           0         100           0
        143        0.13        0.11           0      100000           0           0           0           0           0           0       92.55           0
        144        0.12        0.13           0      100000           0           0           0           0           0           0         100           0
        145        0.12        0.13           0      100000           0           0           0           0           0           0         100           0
        146        0.12        0.12           0      100000           0           0           0           0           0           0         100           0
        147        0.29         0.1           0      100000           0           0           0           0           0           0       42.21           0
        148        0.38         0.1           0      100000           0           0           0           0           0           0       32.32           0
        149        2.13        0.11           0      100000           0           0           0           0           0           0        5.82           0
        150        0.12        0.12           0      100000           0           0           0           0           0           0         100           0
        151        0.14        0.11           0      100000           0           0           0           0           0           0       86.13           0
        152        0.12        0.14           0      100000           0           0           0           0           0           0         100           0
        153        0.84        0.13           0      100000           0           0           0           0           0           0       14.71           0
        154        0.18        0.11           0      100000           0           0           0           0           0           0       65.79           0
        155         0.5        0.11           0      100000           0           0           0           0           0           0       23.29           0
        156        0.22        0.13           0      100000           0           0           0           0           0           0       53.57           0
        157        0.12         0.1           0      100000           0           0           0           0           0           0         100           0
        158        1.16        0.15           0      100000           0           0           0           0           0           0        9.99           0
        159        0.26        0.11           0      100000           0           0           0           0           0           0       45.18           0
        160        0.91        0.09           0      100000           0           0           0           0           0           0       12.75           0
        161        0.24        0.11           0      100000           0           0           0           0           0           0       49.02           0
        162        0.14        0.07           0      100000           0           0           0           0           0           0       85.23           0
        163        0.35        0.08           0      100000           0           0           0           0           0           0       33.41           0
        164        0.13         0.1           0      100000           0           0           0           0           0           0       92.03           0
        165        0.17        0.12           0      100000           0           0           0           0           0           0       69.77           0
        166        0.12        0.09           0      100000           0           0           0           0           0           0         100           0
        167        0.12         0.1           0      100000           0           0           0           0           0           0         100           0
        168        0.12        0.11           0      100000           0           0           0           0           0           0         100           0
        169        0.12        0.12           0      100000           0           0           0           0           0           0         100           0
        170        0.12         0.1           0      100000           0           0           0           0           0           0         100           0
        171        0.12        0.09           0      100000           0           0           0           0           0           0         100           0
        172        0.12         0.1           0      100000           0           0           0           0           0           0         100           0
        173        0.49         0.1           0      100000           0           0           0           0           0           0       23.77           0
        174        0.42        0.08           0      100000           0           0           0           0           0           0       27.78           0
        175        0.16        0.09           0      100000           0           0           0           0           0           0       74.26           0
        176        0.43        0.06           0      100000           0           0           0           0           0           0       27.13           0
        177        0.16        0.06           0      100000           0           0           0           0           0           0       74.26           0
        178        0.15        0.09           0      100000           0           0           0           0           0           0       79.37           0
        179        0.14        0.07           0      100000           0           0           0           0           0           0       85.23           0
        180        0.27         0.1           0      100000           0           0           0           0           0           0       43.48           0
        181         0.2        0.07           0      100000           0           0           0           0           0           0       59.06           0
        182        0.42        0.16           0      100000           0           0           0           0           0           0       27.78           0
        183        0.12        0.07           0      100000           0           0           0           0           0           0         100           0
        184        0.15        0.05           0      100000           0           0           0           0           0           0       79.37           0
        185        0.39        0.06           0      100000           0           0           0           0           0           0       24.74           0
        186        0.17        0.07           0      100000           0           0           0           0           0           0       57.66           0
        187         0.1        0.04           0      100000           0           0           0           0           0           0         100           0
        188         0.1        0.05           0      100000           0           0           0           0           0           0         100           0