Pcp_File_Version=4
*** BLOCK I: ATMOSPHERIC INFORMATION  **********************************
   MaxAL                    (MaxAL = number of atmospheric data-records)
   2436
 DailyVar  SinusVar  lLay  lBCCycles lInterc lDummy  lDummy  lDummy  lDummy  lDummy
      f      f      f      f      f       f       f       f       f       f
 hCritS                 (max. allowed pressure head at the soil surface)
      0
       tAtm        Prec       rSoil       rRoot      hCritA          rB          hB          ht        tTop        tBot        Ampl        cTop        cBot   RootDepth
          1        0.11        0.24           0      100000           0           0           0           0           0           0     2970.98           0      112.18           0     4698.59           0     1191.36           0     1629.24           0
          2        0.66        0.19           0      100000           0           0           0           0           0           0      480.75           0       18.15           0      760.31           0      192.78           0      263.64           0
          3        0.11        0.21           0      100000           0           0           0           0           0           0     2970.98           0      112.18           0     4698.59           0     1191.36           0     1629.24           0
          4        0.29        0.15           0      100000           0           0           0           0           0           0     1102.31           0       41.62           0      1743.3           0      442.02           0      604.49           0
          5        0.12        0.13           0      100000           0           0           0           0           0           0     2715.26           0      102.53           0     4294.17           0     1088.81           0        1489           0
          6        0.11        0.25           0      100000           0           0           0           0           0           0     2970.98           0      112.18           0     4698.59           0     1191.36           0     1629.24           0
          7        0.11        0.21           0      100000           0           0           0           0           0           0     2970.98           0      112.18           0     4698.59           0     1191.36           0     1629.24           0
          8        0.15        0.14           0      100000           0           0           0           0           0           0     2158.02           0       81.49           0     3412.89           0      865.36           0     1183.42           0
          9        0.11        0.22           0      100000           0           0           0           0           0           0     2970.98           0      112.18           0     4698.59           0     1191.36           0     1629.24           0
         10        0.11        0.29           0      100000           0           0           0           0           0           0     2970.98           0      112.18           0     4698.59           0     1191.36           0     1629.24           0
         11        0.11        0.38           0      100000           0           0           0           0           0           0     2970.98           0      112.18           0     4698.59           0     1191.36           0     1629.24           0
         12        0.28        0.29           0      100000           0           0           0           0           0           0     1142.22           0       43.13           0     1806.42           0      458.03           0      626.38           0
         13        2.94        0.29           0      100000           0           0           0           0           0           0      107.44           0        4.06           0      169.91           0       43.08           0       58.92           0
         14        1.14        0.29           0      100000           0           0           0           0           0           0      277.65           0       10.48           0       439.1           0      111.34           0      152.26           0
         15        0.11        0.34           0      100000           0           0           0           0           0           0     2970.98           0      112.18           0     4698.59           0     1191.36           0     1629.24           0
         16        0.11        0.34           0      100000           0           0           0           0           0           0     2970.98           0      112.18           0     4698.59           0     1191.36           0     1629.24           0
         17        0.11        0.51           0      100000           0           0           0           0           0           0     2970.98           0      112.18           0     4698.59           0     1191.36           0     1629.24           0
         18        0.95        0.41           0      100000           0           0           0           0           0           0       333.4           0       12.59           0      527.28           0      133.69           0      182.83           0
         19        2.51        0.29           0      100000           0           0           0           0           0           0      125.87           0        4.75           0      199.07           0       50.47           0       69.03           0
         20        0.47        0.28           0      100000           0           0           0           0           0           0      676.69           0       25.55           0     1070.18           0      271.35           0      371.09           0
         21        0.11        0.37           0      100000           0           0           0           0           0           0     2970.98           0      112.18           0     4698.59           0     1191.36           0     1629.24           0
         22        0.11         0.4           0      100000           0           0           0           0           0           0     2970.98           0      112.18           0     4698.59           0     1191.36           0     1629.24           0
         23        0.11        0.46           0      100000           0           0           0           0           0           0     2970.98           0      112.18           0     4698.59           0     1191.36           0     1629.24           0
         24        0.11         0.3           0      100000           0           0           0           0           0           0     2970.98           0      112.18           0     4698.59           0     1191.36           0     1629.24           0
         25        0.11        0.35           0      100000           0           0           0           0           0           0     2970.98           0      112.18           0     4698.59           0     1191.36           0     1629.24           0
         26        0.11        0.44           0      100000           0           0           0           0           0           0     2970.98           0      112.18           0     4698.59           0     1191.36           0     1629.24           0
         27        0.11        0.57           0      100000           0           0           0           0           0           0     2970.98           0      112.18           0     4698.59           0     1191.36           0     1629.24           0
         28        0.11        0.54           0      100000           0           0           0           0           0           0     2970.98           0      112.18           0     4698.59           0     1191.36           0     1629.24           0
         29        0.45        0.52           0      100000           0           0           0           0           0           0      707.02           0        26.7           0     1118.15           0      283.51           0      387.72           0
         30        1.17        0.39           0      100000           0           0           0           0           0           0      270.51           0       10.21           0       427.8           0      108.47           0      148.34           0
         31        0.11        0.42           0      100000           0           0           0           0           0           0     2970.98           0      112.18           0     4698.59           0     1191.36           0     1629.24           0
         32        0.17        0.43           0      100000           0           0           0           0           0           0     2605.22           0       98.37           0     4120.14           0     1044.69           0     1428.66           0
         33        0.17        0.44           0      100000           0           0           0           0           0           0     2605.22           0       98.37           0     4120.14           0     1044.69           0     1428.66           0
         34         0.6        0.36           0      100000           0           0           0           0           0           0      741.05           0       27.98           0     1171.97           0      297.16           0      406.38           0
         35        1.08        0.28           0      100000           0           0           0           0           0           0      411.98           0       15.56           0      651.55           0       165.2           0      225.92           0
         36        0.17        0.33           0      100000           0           0           0           0           0           0     2605.22           0       98.37           0     4120.14           0     1044.69           0     1428.66           0
         37        0.66        0.32           0      100000           0           0           0           0           0           0      673.78           0       25.44           0     1065.58           0      270.18           0      369.49           0
         38        0.24        0.32           0      100000           0           0           0           0           0           0     1848.32           0       69.79           0      2923.1           0      741.17           0     1013.59           0
         39        0.19        0.38           0      100000           0           0           0           0           0           0     2332.33           0       88.07           0     3688.57           0      935.26           0     1279.01           0
         40        0.67         0.4           0      100000           0           0           0           0           0           0      663.74           0       25.06           0      1049.7           0      266.16           0      363.98           0
         41        0.17        0.41           0      100000           0           0           0           0           0           0     2605.22           0       98.37           0     4120.14           0     1044.69           0     1428.66           0
         42        0.21        0.54           0      100000           0           0           0           0           0           0     2111.19           0       79.72           0     3338.84           0      846.58           0     1157.74           0
         43        0.17        0.44           0      100000           0           0           0           0           0           0     2605.22           0       98.37           0     4120.14           0     1044.69           0     1428.66           0
         44        0.17        0.37           0      100000           0           0           0           0           0           0     2605.22           0       98.37           0     4120.14           0     1044.69           0     1428.66           0
         45        0.17        0.45           0      100000           0           0           0           0           0           0     2605.22           0       98.37           0     4120.14           0     1044.69           0     1428.66           0
         46        1.08        0.51           0      100000           0           0           0           0           0           0      411.98           0       15.56           0      651.55           0       165.2           0      225.92           0
         47        0.19         0.4           0      100000           0           0           0           0           0           0     2332.33           0       88.07           0     3688.57           0      935.26           0     1279.01           0
         48        0.17        0.34           0      100000           0           0           0           0           0           0     2605.22           0       98.37           0     4120.14           0     1044.69           0     1428.66           0
         49        0.17        0.46           0      100000           0           0           0           0           0           0     2605.22           0       98.37           0     4120.14           0     1044.69           0     1428.66           0
         50        0.17        0.55           0      100000           0           0           0           0           0           0     2605.22           0       98.37           0     4120.14           0     1044.69           0     1428.66           0
         51        0.17        0.58           0      100000           0           0           0           0           0           0     2605.22           0       98.37           0     4120.14           0     1044.69           0     1428.66           0
         52        0.17        0.52           0      100000           0           0           0           0           0           0     2605.22           0       98.37           0     4120.14           0     1044.69           0     1428.66           0
         53        3.64        0.56           0      100000           0           0           0           0           0           0      122.31           0        4.62           0      193.43           0       49.05           0       67.07           0
         54        0.23        0.47           0      100000           0           0           0           0           0           0     1928.35           0       72.81           0     3049.68           0      773.27           0     1057.48           0
         55        0.17        0.42           0      100000           0           0           0           0           0           0     2605.22           0       98.37           0     4120.14           0     1044.69           0     1428.66           0
         56        0.84        0.34           0      100000           0           0           0           0           0           0      529.56           0          20           0       837.5           0      212.35           0       290.4           0
         57        0.44        0.45           0      100000           0           0           0           0           0           0     1009.96           0       38.14           0     1597.24           0      404.99           0      553.84           0
         58        0.17        0.34           0      100000           0           0           0           0           0           0     2605.22           0       98.37           0     4120.14           0     1044.69           0     1428.66           0
         59        1.04        0.34           0      100000           0           0           0           0           0           0      427.81           0       16.15           0      676.58           0      171.55           0      234.61           0
         60        0.35        0.25           0      100000           0           0           0           0           0           0     1268.97           0       47.92           0     2006.86           0      508.85           0      695.88           0
         61        2.68        0.32           0      100000           0           0           0           0           0           0      166.11           0        6.27           0       262.7           0       66.61           0       91.09           0
         62        0.61        0.24           0      100000           0           0           0           0           0           0      689.69           0       26.04           0     1090.74           0      276.56           0      378.21           0
         63        0.32        0.24           0      100000           0           0           0           0           0           0     1310.14           0       49.47           0     2071.98           0      525.36           0      718.46           0
         64        0.34        0.42           0      100000           0           0           0           0           0           0      1233.6           0       46.58           0     1950.94           0      494.67           0      676.49           0
         65        0.14        0.41           0      100000           0           0           0           0           0           0     2966.67           0      112.02           0     4691.76           0     1189.63           0     1626.87           0
         66        0.17        0.44           0      100000           0           0           0           0           0           0     2450.31           0       92.52           0     3875.15           0      982.57           0     1343.71           0
         67        0.14        0.48           0      100000           0           0           0           0           0           0     2966.67           0      112.02           0     4691.76           0     1189.63           0     1626.87           0
         68         0.4        0.46           0      100000           0           0           0           0           0           0     1049.65           0       39.63           0     1660.01           0      420.91           0      575.61           0
         69        0.14        0.44           0      100000           0           0           0           0           0           0     2966.67           0      112.02           0     4691.76           0     1189.63           0     1626.87           0
         70        0.17         0.4           0      100000           0           0           0           0           0           0     2450.31           0       92.52           0     3875.15           0      982.57           0     1343.71           0
         71         0.7        0.28           0      100000           0           0           0           0           0           0      601.31           0       22.71           0      950.97           0      241.12           0      329.75           0
         72        0.15        0.34           0      100000           0           0           0           0           0           0     2771.95           0      104.67           0     4383.83           0     1111.55           0     1520.09           0
         73        1.12        0.25           0      100000           0           0           0           0           0           0      376.29           0       14.21           0      595.11           0      150.89           0      206.35           0
         74        0.14        0.35           0      100000           0           0           0           0           0           0     2966.67           0      112.02           0     4691.76           0     1189.63           0     1626.87           0
         75        0.26        0.32           0      100000           0           0           0           0           0           0     1609.76           0       60.78           0     2545.82           0      645.51           0      882.76           0
         76        0.18         0.3           0      100000           0           0           0           0           0           0     2315.94           0       87.45           0     3662.65           0      928.69           0     1270.02           0
         77        0.18        0.29           0      100000           0           0           0           0           0           0     2315.94           0       87.45           0     3662.65           0      928.69           0     1270.02           0
         78        0.23        0.37           0      100000           0           0           0           0           0           0     1817.59           0       68.63           0     2874.51           0      728.85           0      996.74           0
         79        0.14        0.45           0      100000           0           0           0           0           0           0     2966.67           0      112.02           0     4691.76           0     1189.63           0     1626.87           0
         80        2.02        0.54           0      100000           0           0           0           0           0           0      208.83           0        7.89           0      330.27           0       83.74           0      114.52           0
         81        0.21        0.34           0      100000           0           0           0           0           0           0     1988.77           0        75.1           0     3145.23           0      797.49           0     1090.61           0
         82        0.14        0.42           0      100000           0           0           0           0           0           0     2966.67           0      112.02           0     4691.76           0     1189.63           0     1626.87           0
         83         1.4        0.35           0      100000           0           0           0           0           0           0      301.16           0       11.37           0      476.29           0      120.77           0      165.15           0
         84        0.64        0.32           0      100000           0           0           0           0           0           0      657.48           0       24.83           0      1039.8           0      263.65           0      360.55           0
         85        1.15        0.23           0      100000           0           0           0           0           0           0       366.5           0       13.84           0      579.61           0      146.96           0      200.98           0
         86        3.43        0.18           0      100000           0           0           0           0           0           0      123.05           0        4.65           0       194.6           0       49.34           0       67.48           0
         87        2.87        0.23           0      100000           0           0           0           0           0           0      147.04           0        5.55           0      232.53           0       58.96           0       80.63           0
         88        0.14        0.23           0      100000           0           0           0           0           0           0     2966.67           0      112.02           0     4691.76           0     1189.63           0     1626.87           0
         89        0.16        0.32           0      100000           0           0           0           0           0           0     2601.23           0       98.22           0     4113.82           0     1043.09           0     1426.47           0
         90        0.14        0.36           0      100000           0           0           0           0           0           0     2966.67           0      112.02           0     4691.76           0     1189.63           0     1626.87           0
         91        0.18        0.47           0      100000           0           0           0           0           0           0     2315.94           0       87.45           0     3662.65           0      928.69           0     1270.02           0
         92        0.14        0.41           0      100000           0           0           0           0           0           0     2966.67           0      112.02           0     4691.76           0     1189.63           0     1626.87           0
         93         0.3        0.37           0      100000           0           0           0           0           0           0      1312.4           0       49.56           0     2075.55           0      526.27           0       719.7           0
         94        0.13        0.36           0      100000           0           0           0           0           0           0     2992.53           0         113           0     4732.67           0        1200           0     1641.06           0
         95        0.23        0.34           0      100000           0           0           0           0           0           0     1707.03           0       64.46           0     2699.66           0      684.52           0      936.11           0
         96        0.13        0.36           0      100000           0           0           0           0           0           0     2992.53           0         113           0     4732.67           0        1200           0     1641.06           0
         97        1.02        0.31           0      100000           0           0           0           0           0           0      388.53           0       14.67           0      614.45           0       155.8           0      213.06           0
         98        0.13         0.3           0      100000           0           0           0           0           0           0     2992.53           0         113           0     4732.67           0        1200           0     1641.06           0
         99        0.13         0.4           0      100000           0           0           0           0           0           0     2992.53           0         113           0     4732.67           0        1200           0     1641.06           0
        100        0.18        0.32           0      100000           0           0           0           0           0           0     2173.97           0       82.09           0     3438.12           0      871.76           0     1192.17           0
        101        0.13        0.33           0      100000           0           0           0           0           0           0     2992.53           0         113           0     4732.67           0        1200           0     1641.06           0
        102        0.44        0.19           0      100000           0           0           0           0           0           0      897.45           0       33.89           0     1419.31           0      359.88           0      492.15           0
        103         3.5        0.13           0      100000           0           0           0           0           0           0      113.45           0        4.28           0      179.42           0       45.49           0       62.21           0
        104        0.64        0.17           0      100000           0           0           0           0           0           0      618.21           0       23.34           0       977.7           0       247.9           0      339.02           0
        105        0.15        0.25           0      100000           0           0           0           0           0           0     2600.82           0       98.21           0     4113.18           0     1042.92           0     1426.25           0
        106        0.13        0.35           0      100000           0           0           0           0           0           0     2992.53           0         113           0     4732.67           0        1200           0     1641.06           0
        107        0.13        0.37           0      100000           0           0           0           0           0           0     2992.53           0         113           0     4732.67           0        1200           0     1641.06           0
        108        0.16        0.27           0      100000           0           0           0           0           0           0     2441.05           0       92.17           0     3860.51           0      978.86           0     1338.63           0
        109        0.29        0.29           0      100000           0           0           0           0           0           0     1357.22           0       51.25           0     2146.44           0      544.24           0      744.28           0
        110        1.31        0.26           0      100000           0           0           0           0           0           0       302.7           0       11.43           0      478.72           0      121.38           0         166           0
        111        0.14        0.24           0      100000           0           0           0           0           0           0     2782.96           0      105.08           0     4401.23           0     1115.96           0     1526.13           0
        112        0.37        0.24           0      100000           0           0           0           0           0           0     1065.96           0       40.25           0     1685.82           0      427.45           0      584.56           0
        113        0.13        0.23           0      100000           0           0           0           0           0           0     2992.53           0         113           0     4732.67           0        1200           0     1641.06           0
        114        0.13        0.25           0      100000           0           0           0           0           0           0     2992.53           0         113           0     4732.67           0        1200           0     1641.06           0
        115        0.13        0.31           0      100000           0           0           0           0           0           0     2992.53           0         113           0     4732.67           0        1200           0     1641.06           0
        116        0.69        0.27           0      100000           0           0           0           0           0           0       573.6           0       21.66           0      907.14           0      230.01           0      314.55           0