Pcp_File_Version=4
*** BLOCK A: BASIC INFORMATION *****************************************
Heading
Flextreat Hydraulic Model
LUnit  TUnit  MUnit  (indicated units are obligatory for all input data)
cm
days
mmol
lWat      lChem     lTemp     lSink     lRoot     lShort    lWDep     lScreen   lVariabBC lEquil    lInverse
t         t         f         f         f         f         f         t         t         t         f
lSnow     lHP1      lMeteo    lVapor    lActiveU  lFluxes   lIrrig    lDummy    lDummy    lDummy
f         f         f         f         f         t         f         f         f         f
NMat      NLay      CosAlpha
2         2         1
*** BLOCK B: WATER FLOW INFORMATION ************************************
MaxIt   TolTh   TolH       (maximum number of iterations and tolerances)
20      0.001   1
TopInf  WLayer  KodTop  InitCond
t       t       -1      t
BotInf  qGWLF   FreeD   SeepF   KodBot  DrainF  hSeep
f       f       t       f       -1      f       0
hTab1   hTabN
1e-06   10000
Model   Hysteresis
0       0
thr         ths         Alfa        n           Ks          l
0.0480794   0.367047    0.0334944   3.03224     726.812     0.5
0.048609    0.362313    0.0355833   3.99447     1325.3      0.5
*** BLOCK C: TIME INFORMATION ******************************************
dt        dtMin     dtMax     DMul      DMul2     ItMin     ItMax     MPL
0.05      1e-05     0.1       1.1       0.7       3         7         250
tInit     tMax
0         2436
lPrintD             nPrintSteps         tPrintInterval      lEnter
f                   1                   7                   t
TPrint(1),TPrint(2),...,TPrint(MPL)
          1       9.744      19.488      29.232      38.976       48.72
     58.464      68.208      77.952      87.696       97.44     107.184
    116.928     126.672     136.416      146.16     155.904     165.648
    175.392     185.136      194.88     204.624     214.368     224.112
    233.856       243.6     253.344     263.088     272.832     282.576
     292.32     302.064     311.808     321.552     331.296      341.04
    350.784     360.528     370.272     380.016      389.76     399.504
    409.248     418.992     428.736      438.48     448.224     457.968
    467.712     477.456       487.2     496.944     506.688     516.432
    526.176      535.92     545.664     555.408     565.152     574.896
     584.64     594.384     604.128     613.872     623.616      633.36
    643.104     652.848     662.592     672.336      682.08     691.824
    701.568     711.312     721.056       730.8     740.544     750.288
    760.032     769.776      779.52     789.264     799.008     808.752
    818.496      828.24     837.984     847.728     857.472     867.216
     876.96     886.704     896.448     906.192     915.936      925.68
    935.424     945.168     954.912     964.656       974.4     984.144
    993.888    1003.632    1013.376     1023.12    1032.864    1042.608
   1052.352    1062.096     1071.84    1081.584    1091.328    1101.072
   1110.816     1120.56    1130.304    1140.048    1149.792    1159.536
    1169.28    1179.024    1188.768    1198.512    1208.256        1218
   1227.744    1237.488    1247.232    1256.976     1266.72    1276.464
   1286.208    1295.952    1305.696     1315.44    1325.184    1334.928
   1344.672    1354.416     1364.16    1373.904    1383.648    1393.392
   1403.136     1412.88    1422.624    1432.368    1442.112    1451.856
     1461.6    1471.344    1481.088    1490.832    1500.576     1510.32
   1520.064    1529.808    1539.552    1549.296     1559.04    1568.784
   1578.528    1588.272    1598.016     1607.76    1617.504    1627.248
   1636.992    1646.736     1656.48    1666.224    1675.968    1685.712
   1695.456      1705.2    1714.944    1724.688    1734.432    1744.176
    1753.92    1763.664    1773.408    1783.152    1792.896     1802.64
   1812.384    1822.128    1831.872    1841.616     1851.36    1861.104
   1870.848    1880.592    1890.336     1900.08    1909.824    1919.568
   1929.312    1939.056      1948.8    1958.544    1968.288    1978.032
   1987.776     1997.52    2007.264    2017.008    2026.752    2036.496
    2046.24    2055.984    2065.728    2075.472    2085.216     2094.96
   2104.704    2114.448    2124.192    2133.936     2143.68    2153.424
   2163.168    2172.912    2182.656      2192.4    2202.144    2211.888
   2221.632    2231.376     2241.12    2250.864    2260.608    2270.352
   2280.096     2289.84    2299.584    2309.328    2319.072    2328.816
    2338.56    2348.304    2358.048    2367.792    2377.536     2387.28
   2397.024    2406.768    2416.512    2426.256        2436
*** BLOCK F: SOLUTE TRANSPORT INFORMATION *****************************************************
Epsi        lUpW        lArtD       lTDep       cTolA       cTolR       MaxItC      PeCr        No.Solutes  lTort       iBacter     lFiltr      nChPar
0.5         t           f           f           0           0           1           1           5           t           0           f           16
iNonEqul    lWatDep     lDualNEq    lInitM      lInitEq     lTort       lDummy      lDummy      lDummy      lDummy      lCFTr
0           f           f           f           f           f           t           f           f           f           f
Bulk.d.     DisperL.    Frac        Mobile WC (1..NMat)
1.5         20          1           0
1.5         20          1           0
DifW        DifG                n-th solute
0           0
Ks          Nu          Beta        Henry       SnkL1       SnkS1       SnkG1       SnkL1'      SnkS1'      SnkG1'      SnkL0       SnkS0       SnkG0       Alfa
0           0           1           0           0.00346     0           0           0           0           0           0           0           0           0
0           0           1           0           0.00346     0           0           0           0           0           0           0           0           0
DifW        DifG                n-th solute
0           0
Ks          Nu          Beta        Henry       SnkL1       SnkS1       SnkG1       SnkL1'      SnkS1'      SnkG1'      SnkL0       SnkS0       SnkG0       Alfa
0           0           1           0           0.02876     0           0           0           0           0           0           0           0           0
0           0           1           0           0.02876     0           0           0           0           0           0           0           0           0
DifW        DifG                n-th solute
0           0
Ks          Nu          Beta        Henry       SnkL1       SnkS1       SnkG1       SnkL1'      SnkS1'      SnkG1'      SnkL0       SnkS0       SnkG0       Alfa
0           0           1           0           0.01346     0           0           0           0           0           0           0           0           0
0           0           1           0           0.01346     0           0           0           0           0           0           0           0           0
DifW        DifG                n-th solute
0           0
Ks          Nu          Beta        Henry       SnkL1       SnkS1       SnkG1       SnkL1'      SnkS1'      SnkG1'      SnkL0       SnkS0       SnkG0       Alfa
0           0           1           0           0.1058      0           0           0           0           0           0           0           0           0
0           0           1           0           0.1058      0           0           0           0           0           0           0           0           0
DifW        DifG                n-th solute
0           0
Ks          Nu          Beta        Henry       SnkL1       SnkS1       SnkG1       SnkL1'      SnkS1'      SnkG1'      SnkL0       SnkS0       SnkG0       Alfa
0           0           1           0           6.93        0           0           0           0           0           0           0           0           0
0           0           1           0           6.93        0           0           0           0           0           0           0           0           0
kTopSolute  SolTop      kBotSolute  SolBot
-1          0           0           0           0           0           0           0           0           0           0           0           0           0           0           0           0           0           0           0           0           0
tPulse
365
*** END OF INPUT FILE 'SELECTOR.IN' ************************************
